Version 4
SHEET 1 1284 680
WIRE 688 -160 -96 -160
WIRE 432 -80 -48 -80
WIRE 688 -64 688 -160
WIRE 208 -16 32 -16
WIRE 432 -16 288 -16
WIRE 688 64 688 16
WIRE 688 64 400 64
WIRE 1072 64 688 64
WIRE 432 80 432 -16
WIRE 880 112 768 112
WIRE 992 112 944 112
WIRE 1120 112 1056 112
WIRE 1184 112 1120 112
WIRE 1280 112 1184 112
WIRE 256 160 192 160
WIRE 400 160 400 64
WIRE 400 160 320 160
WIRE 768 240 768 112
WIRE 832 240 768 240
WIRE 400 256 400 160
WIRE 400 256 320 256
WIRE 688 256 688 64
WIRE 688 256 528 256
WIRE 192 272 192 160
WIRE 192 272 112 272
WIRE 256 272 192 272
WIRE 432 272 432 144
WIRE 464 272 432 272
WIRE 768 272 768 240
WIRE 832 272 768 272
WIRE 400 288 320 288
WIRE 688 288 528 288
WIRE 256 304 192 304
WIRE 464 304 448 304
WIRE 832 304 736 304
WIRE 352 320 320 320
WIRE 368 320 352 320
WIRE 432 320 432 272
WIRE 560 320 528 320
WIRE 608 320 560 320
WIRE 720 320 672 320
WIRE 736 320 736 304
WIRE 736 320 720 320
WIRE 1120 320 1120 112
WIRE 832 336 768 336
WIRE 1072 336 1072 64
WIRE 1072 336 992 336
WIRE 112 352 112 272
WIRE 448 384 448 304
WIRE 560 384 560 320
WIRE 560 384 448 384
WIRE 192 400 192 304
WIRE 352 400 352 320
WIRE 352 400 192 400
WIRE 720 400 720 320
WIRE -96 560 -96 -160
WIRE -48 560 -48 -80
WIRE -48 560 -96 560
WIRE 32 560 32 -16
WIRE 32 560 -48 560
WIRE 112 560 112 416
WIRE 112 560 32 560
WIRE 192 560 112 560
WIRE 400 560 400 288
WIRE 400 560 192 560
WIRE 688 560 688 288
WIRE 688 560 400 560
WIRE 720 560 720 464
WIRE 720 560 688 560
WIRE 768 560 768 336
WIRE 768 560 720 560
WIRE 1120 560 1120 384
WIRE 1120 560 768 560
WIRE 192 640 192 560
FLAG 192 640 0
FLAG 1184 112 Output
IOPIN 1184 112 Out
SYMBOL AutoGenerated/MCP6001 288 288 R0
SYMATTR InstName AudioBias
SYMBOL AutoGenerated/MCP6001 496 288 R0
SYMATTR InstName InputBuffer
SYMBOL AutoGenerated/NJM4580 912 288 R0
SYMATTR InstName OutputBuffer
SYMBOL voltage 688 32 R180
WINDOW 0 24 96 Left 2
WINDOW 3 24 16 Left 2
SYMATTR InstName 5V_In
SYMATTR Value 5
SYMBOL res2 96 352 R0
SYMATTR InstName R1
SYMATTR Value 100k
SYMBOL res2 320 144 R90
WINDOW 0 0 32 VBottom 2
WINDOW 3 32 32 VTop 2
SYMATTR InstName R2
SYMATTR Value 100k
SYMBOL res2 432 304 R90
WINDOW 0 0 32 VBottom 2
WINDOW 3 32 32 VTop 2
SYMATTR InstName R3
SYMATTR Value 2Meg
SYMBOL res2 448 -16 R180
WINDOW 0 36 56 Left 2
WINDOW 3 36 16 Left 2
SYMATTR InstName R4
SYMATTR Value 2Meg
SYMBOL cap 416 80 R0
SYMATTR InstName C1
SYMATTR Value 10µF
SYMBOL cap 672 304 R90
WINDOW 0 0 32 VBottom 2
WINDOW 3 32 32 VTop 2
SYMATTR InstName C2
SYMATTR Value 10µF
SYMBOL res2 704 400 R0
SYMATTR InstName R5
SYMATTR Value 2Meg
SYMBOL res2 944 96 R90
WINDOW 0 0 32 VBottom 2
WINDOW 3 32 32 VTop 2
SYMATTR InstName R6
SYMATTR Value 2Meg
SYMBOL cap 1056 96 R90
WINDOW 0 0 32 VBottom 2
WINDOW 3 32 32 VTop 2
SYMATTR InstName C3
SYMATTR Value 10µF
SYMBOL res2 1104 320 R0
SYMATTR InstName R7
SYMATTR Value 2Meg
SYMBOL voltage 304 -16 R90
WINDOW 0 -32 56 VBottom 2
WINDOW 3 32 56 VTop 2
SYMATTR InstName V1
SYMATTR Value wavefile=something.wav
TEXT 816 -32 Left 2 !.trans 15
